
     RDKit          3D

 30 35  0  0  0  0  0  0  0  0999 V2000
    8.9264   62.2156   -8.0068 C   0  0  0  0  0  0  0  0  0  0  0  0
    9.4228   62.9551   -6.8133 C   0  0  0  0  0  0  0  0  0  0  0  0
   10.1940   64.0408   -6.8471 O   0  0  0  0  0  0  0  0  0  0  0  0
   10.4509   64.4437   -5.6248 N   0  0  0  0  0  0  0  0  0  0  0  0
    9.8413   63.6145   -4.7383 C   0  0  0  0  0  0  0  0  0  0  0  0
    9.8349   63.6552   -3.2557 C   0  0  0  0  0  0  0  0  0  0  0  0
    9.1900   62.6715   -5.4879 C   0  0  0  0  0  0  0  0  0  0  0  0
    8.3892   61.5595   -4.9932 C   0  0  0  0  0  0  0  0  0  0  0  0
    8.8926   60.6266   -4.1064 C   0  0  0  0  0  0  0  0  0  0  0  0
    8.1665   59.5615   -3.6162 C   0  0  0  0  0  0  0  0  0  0  0  0
    8.4622   58.5462   -2.7523 N   0  0  0  0  0  0  0  0  0  0  0  0
    7.3479   57.8051   -2.6557 C   0  0  0  0  0  0  0  0  0  0  0  0
    6.3740   58.3322   -3.4335 N   0  0  0  0  0  0  0  0  0  0  0  0
    6.8563   59.4302   -4.0457 C   0  0  0  0  0  0  0  0  0  0  0  0
    6.3083   60.3402   -4.9335 C   0  0  0  0  0  0  0  0  0  0  0  0
    7.0615   61.3917   -5.4030 C   0  0  0  0  0  0  0  0  0  0  0  0
    4.9311   60.1574   -5.3522 C   0  0  0  0  0  0  0  0  0  0  0  0
    4.6774   59.4173   -6.4791 C   0  0  0  0  0  0  0  0  0  0  0  0
    5.8126   58.8333   -7.2258 C   0  0  0  0  0  0  0  0  0  0  0  0
    3.3946   59.2296   -6.8950 C   0  0  0  0  0  0  0  0  0  0  0  0
    2.3524   59.7840   -6.1824 C   0  0  0  0  0  0  0  0  0  0  0  0
    2.6245   60.5313   -5.0428 C   0  0  0  0  0  0  0  0  0  0  0  0
    1.6539   61.0842   -4.3248 N   0  0  0  0  0  0  0  0  0  0  0  0
    1.8510   61.8149   -3.2179 C   0  0  0  0  0  0  0  0  0  0  0  0
    3.1334   62.0305   -2.7605 C   0  0  0  0  0  0  0  0  0  0  0  0
    4.1892   61.4690   -3.4823 C   0  0  0  0  0  0  0  0  0  0  0  0
    3.9239   60.7273   -4.6129 C   0  0  0  0  0  0  0  0  0  0  0  0
    7.2559   56.5935   -1.8034 C   0  0  0  0  0  0  0  0  0  0  0  0
    8.1086   55.4385   -2.2047 C   0  0  0  0  0  0  0  0  0  0  0  0
    8.4507   56.2014   -0.9868 C   0  0  0  0  0  0  0  0  0  0  0  0
  1  2  1  0
  2  3  1  0
  3  4  1  0
  4  5  2  0
  5  6  1  0
  5  7  1  0
  7  8  1  0
  8  9  2  0
  9 10  1  0
 10 11  1  0
 11 12  1  0
 12 13  2  0
 13 14  1  0
 14 15  1  0
 15 16  2  0
 15 17  1  0
 17 18  2  0
 18 19  1  0
 18 20  1  0
 20 21  2  0
 21 22  1  0
 22 23  2  0
 23 24  1  0
 24 25  2  0
 25 26  1  0
 26 27  2  0
 12 28  1  0
 28 29  1  0
 29 30  1  0
  7  2  2  0
 16  8  1  0
 14 10  2  0
 27 17  1  0
 27 22  1  0
 30 28  1  0
M  END
$$$$
