/tmp/_lig.pdb
     RDKit          3D

 52 57  0  0  0  0  0  0  0  0999 V2000
    8.4576   61.4369   -6.3612 C   0  0  0  0  0  0  0  0  0  0  0  0
    9.1792   60.7565   -5.3665 C   0  0  0  0  0  0  0  0  0  0  0  0
    8.5379   59.7556   -4.6297 C   0  0  0  0  0  0  0  0  0  0  0  0
    7.2110   59.4514   -4.8914 C   0  0  0  0  0  0  0  0  0  0  0  0
    6.4658   60.1104   -5.8708 C   0  0  0  0  0  0  0  0  0  0  0  0
    7.1184   61.1150   -6.5977 C   0  0  0  0  0  0  0  0  0  0  0  0
    5.0686   59.7694   -6.1102 C   0  0  0  0  0  0  0  0  0  0  0  0
    9.0748   62.4956   -7.1384 C   0  0  0  0  0  0  0  0  0  0  0  0
    9.7202   63.6881   -6.7233 C   0  0  0  0  0  0  0  0  0  0  0  0
   10.1286   64.4158   -7.7679 N   0  0  0  0  0  0  0  0  0  0  0  0
    9.7607   63.6879   -8.8879 O   0  0  0  0  0  0  0  0  0  0  0  0
    9.1200   62.5476   -8.5154 C   0  0  0  0  0  0  0  0  0  0  0  0
    8.6555   61.6555   -9.5996 C   0  0  2  0  0  0  0  0  0  0  0  0
    9.9636   64.1833   -5.3526 C   0  0  2  0  0  0  0  0  0  0  0  0
    9.0321   58.9587   -3.6342 N   0  0  0  0  0  0  0  0  0  0  0  0
    8.0264   58.1866   -3.2951 C   0  0  0  0  0  0  0  0  0  0  0  0
    6.8957   58.4387   -4.0143 N   0  0  0  0  0  0  0  0  0  0  0  0
    8.1166   57.1508   -2.2112 C   0  0  2  0  0  0  0  0  0  0  0  0
    8.6905   57.5627   -0.8808 C   0  0  2  0  0  0  0  0  0  0  0  0
    9.4699   56.6525   -1.7800 C   0  0  2  0  0  0  0  0  0  0  0  0
    4.0787   60.3447   -5.2661 C   0  0  0  0  0  0  0  0  0  0  0  0
    2.7194   60.0379   -5.4719 C   0  0  0  0  0  0  0  0  0  0  0  0
    2.3838   59.1691   -6.5014 C   0  0  0  0  0  0  0  0  0  0  0  0
    3.3465   58.6015   -7.3334 C   0  0  0  0  0  0  0  0  0  0  0  0
    4.7013   58.8874   -7.1541 C   0  0  0  0  0  0  0  0  0  0  0  0
    4.3728   61.2360   -4.2035 C   0  0  0  0  0  0  0  0  0  0  0  0
    3.3596   61.7697   -3.4196 C   0  0  0  0  0  0  0  0  0  0  0  0
    2.0655   61.3997   -3.7105 C   0  0  0  0  0  0  0  0  0  0  0  0
    1.7374   60.5544   -4.7123 N   0  0  0  0  0  0  0  0  0  0  0  0
    5.7156   58.2499   -8.0712 C   0  0  2  0  0  0  0  0  0  0  0  0
   10.1670   60.9914   -5.1824 H   0  0  0  0  0  0  0  0  0  0  0  0
    6.5976   61.6295   -7.3251 H   0  0  0  0  0  0  0  0  0  0  0  0
    8.5193   62.2242  -10.4956 H   0  0  0  0  0  0  0  0  0  0  0  0
    7.7264   61.2057   -9.3179 H   0  0  0  0  0  0  0  0  0  0  0  0
    9.3848   60.8911   -9.7696 H   0  0  0  0  0  0  0  0  0  0  0  0
    9.7563   63.4036   -4.6497 H   0  0  0  0  0  0  0  0  0  0  0  0
    9.3250   65.0192   -5.1568 H   0  0  0  0  0  0  0  0  0  0  0  0
   10.9857   64.4856   -5.2588 H   0  0  0  0  0  0  0  0  0  0  0  0
    6.0261   57.9861   -3.9240 H   0  0  0  0  0  0  0  0  0  0  0  0
    7.2133   56.6830   -2.5429 H   0  0  0  0  0  0  0  0  0  0  0  0
    8.2655   57.1838    0.0251 H   0  0  0  0  0  0  0  0  0  0  0  0
    8.8858   58.4977   -0.3988 H   0  0  0  0  0  0  0  0  0  0  0  0
   10.3519   57.0107   -2.2686 H   0  0  0  0  0  0  0  0  0  0  0  0
    9.9205   55.6880   -1.6719 H   0  0  0  0  0  0  0  0  0  0  0  0
    1.3902   58.9364   -6.6552 H   0  0  0  0  0  0  0  0  0  0  0  0
    3.0551   57.9630   -8.0901 H   0  0  0  0  0  0  0  0  0  0  0  0
    5.3539   61.4913   -4.0103 H   0  0  0  0  0  0  0  0  0  0  0  0
    3.5684   62.4206   -2.6464 H   0  0  0  0  0  0  0  0  0  0  0  0
    1.3049   61.7893   -3.1320 H   0  0  0  0  0  0  0  0  0  0  0  0
    5.2199   57.5739   -8.7362 H   0  0  0  0  0  0  0  0  0  0  0  0
    6.4356   57.7137   -7.4889 H   0  0  0  0  0  0  0  0  0  0  0  0
    6.2106   59.0099   -8.6389 H   0  0  0  0  0  0  0  0  0  0  0  0
  1  2  2  0
  2  3  1  0
  2 31  1  0
  3 15  1  0
  4  3  2  0
  4 17  1  0
  5  4  1  0
  6  5  2  0
  6  1  1  0
  6 32  1  0
  7  5  1  0
  7 21  2  0
  8  1  1  0
  8  9  1  0
  9 14  1  0
 10  9  2  0
 11 10  1  0
 12 11  1  0
 12  8  2  0
 13 12  1  0
 13 33  1  6
 13 34  1  0
 13 35  1  0
 14 36  1  1
 14 37  1  0
 14 38  1  0
 16 15  2  0
 16 18  1  0
 17 16  1  0
 17 39  1  0
 18 20  1  0
 18 19  1  0
 18 40  1  1
 19 41  1  1
 19 42  1  0
 20 19  1  0
 20 43  1  6
 20 44  1  0
 21 26  1  0
 22 21  1  0
 22 29  1  0
 23 22  2  0
 23 45  1  0
 24 25  2  0
 24 23  1  0
 24 46  1  0
 25  7  1  0
 26 27  2  0
 26 47  1  0
 27 48  1  0
 28 27  1  0
 28 49  1  0
 29 28  2  0
 30 25  1  0
 30 50  1  6
 30 51  1  0
 30 52  1  0
M  END
